#======================================================================

# CRYSTAL DATA

#----------------------------------------------------------------------

data_VESTA_phase_1


_pd_phase_name                         'C17 H17 N O2'
_cell_length_a                         12.120(2)
_cell_length_b                         10.285(2)
_cell_length_c                         12.505(3)
_cell_angle_alpha                      90
_cell_angle_beta                       115.95(3)
_cell_angle_gamma                      90
_symmetry_space_group_name_H-M         'P 21/c'
_symmetry_Int_Tables_number            14

loop_
_symmetry_equiv_pos_as_xyz
   'x, y, z'
   '-x, -y, -z'
   '-x, y+1/2, -z+1/2'
   'x, -y+1/2, z+1/2'

loop_
   _atom_site_label
   _atom_site_occupancy
   _atom_site_fract_x
   _atom_site_fract_y
   _atom_site_fract_z
   _atom_site_adp_type
   _atom_site_U_iso_or_equiv
   _atom_site_type_symbol
   C1         1.0     0.5881(2)     0.33490(18)   0.40154(16)  Uiso  0.053225 C
   C2         1.0     0.4768(2)     0.2766(2)     0.37913(18)  Uiso  0.071835 C
   H2         1.0     0.442100      0.289500      0.431500     Uiso  0.086000 H
   C3         1.0     0.4176(2)     0.2000(2)     0.28044(18)  Uiso  0.069735 C
   H3         1.0     0.343100      0.161400      0.266200     Uiso  0.084000 H
   C4         1.0     0.4685(2)     0.1802(2)     0.20221(18)  Uiso  0.060807 C
   H4         1.0     0.429100      0.126900      0.136200     Uiso  0.073000 H
   C5         1.0     0.57715(18)   0.23922(17)   0.22201(16)  Uiso  0.051512 C
   H5         1.0     0.609900      0.226300      0.168100     Uiso  0.062000 H
   C6         1.0     0.64001(17)   0.31840(16)   0.32132(14)  Uiso  0.045119 C
   C7         1.0     0.75630(18)   0.38442(17)   0.34480(16)  Uiso  0.048420 C
   C8         1.0     0.81407(18)   0.36573(17)   0.26585(16)  Uiso  0.050850 C
   H8         1.0     0.778900      0.308200      0.202400     Uiso  0.061000 H
   C9         1.0     0.91705(18)   0.42930(17)   0.28193(16)  Uiso  0.050084 C
   H9         1.0     0.946100      0.489400      0.343700     Uiso  0.060000 H
   C10        1.0     0.98820(17)   0.41589(16)   0.21536(14)  Uiso  0.045023 C
   C11        1.0     0.96079(18)   0.32619(16)   0.12303(16)  Uiso  0.049752 C
   H11        1.0     0.891600      0.274000      0.100900     Uiso  0.060000 H
   C12        1.0     1.03242(17)   0.31286(16)   0.06440(16)  Uiso  0.049223 C
   H12        1.0     1.011700      0.251200      0.004300     Uiso  0.059000 H
   C13        1.0     1.13742(16)   0.39120(16)   0.09346(14)  Uiso  0.044473 C
   C14        1.0     1.16555(18)   0.48081(17)   0.18642(16)  Uiso  0.051698 C
   H14        1.0     1.234400      0.533600      0.209000     Uiso  0.062000 H
   C15        1.0     1.09255(18)   0.49140(17)   0.24440(16)  Uiso  0.052146 C
   H15        1.0     1.113800      0.551600      0.305700     Uiso  0.063000 H
   C16        1.0     1.1777(2)     0.2868(2)    -0.06166(17)  Uiso  0.063288 C
   H16A       1.0     1.178500      0.200800     -0.031500     Uiso  0.095000 H
   H16B       1.0     1.237200      0.292200     -0.092900     Uiso  0.095000 H
   H16C       1.0     1.097600      0.305300     -0.123700     Uiso  0.095000 H
   C17        1.0     1.3096(2)     0.4676(2)     0.0571(2)    Uiso  0.066514 C
   H17A       1.0     1.281200      0.555900      0.047400     Uiso  0.100000 H
   H17B       1.0     1.343800      0.449800      0.002400     Uiso  0.100000 H
   H17C       1.0     1.371300      0.454900      0.137100     Uiso  0.100000 H
   N1         1.0     1.20772(16)   0.38039(16)   0.03364(13)  Uiso  0.053686 N
   O1         1.0     0.64277(16)   0.40626(16)   0.50150(11)  Uiso  0.070812 O
   H1         1.0     0.704900      0.440100      0.503600     Uiso  0.106000 H
   O2         1.0     0.80551(13)   0.45588(14)   0.43465(11)  Uiso  0.064575 O

loop_
   _atom_site_aniso_label
   _atom_site_aniso_U_11
   _atom_site_aniso_U_22
   _atom_site_aniso_U_33
   _atom_site_aniso_U_12
   _atom_site_aniso_U_13
   _atom_site_aniso_U_23
   C1	 0.05440  0.06010  0.04510  0.00150  0.02170  0.00200
   C2	 0.06500  0.09690  0.06170 -0.00950  0.03520 -0.00360
   H2	 0.00000  0.00000  0.00000  0.00000  0.00000  0.00000
   C3	 0.05710  0.08420  0.06970 -0.01270  0.02940  0.00110
   H3	 0.00000  0.00000  0.00000  0.00000  0.00000  0.00000
   C4	 0.05860  0.06290  0.05720 -0.00740  0.02190 -0.00540
   H4	 0.00000  0.00000  0.00000  0.00000  0.00000  0.00000
   C5	 0.05140  0.05530  0.04800  0.00420  0.02190  0.00160
   H5	 0.00000  0.00000  0.00000  0.00000  0.00000  0.00000
   C6	 0.04640  0.04770  0.03970  0.00710  0.01740  0.00720
   C7	 0.05010  0.04890  0.04470  0.00650  0.01930  0.00550
   C8	 0.05380  0.05350  0.04650  0.00340  0.02310  0.00250
   H8	 0.00000  0.00000  0.00000  0.00000  0.00000  0.00000
   C9	 0.05260  0.04910  0.04730  0.00390  0.02070  0.00420
   H9	 0.00000  0.00000  0.00000  0.00000  0.00000  0.00000
   C10	 0.04570  0.04500  0.04200  0.00070  0.01700  0.00360
   C11	 0.04660  0.05070  0.04980 -0.00850  0.01910 -0.00160
   H11	 0.00000  0.00000  0.00000  0.00000  0.00000  0.00000
   C12	 0.05050  0.04780  0.04740 -0.00630  0.01960 -0.00720
   H12	 0.00000  0.00000  0.00000  0.00000  0.00000  0.00000
   C13	 0.04280  0.04570  0.04440  0.00150  0.01860  0.00360
   C14	 0.04750  0.05320  0.05370 -0.01090  0.02150 -0.00780
   H14	 0.00000  0.00000  0.00000  0.00000  0.00000  0.00000
   C15	 0.05500  0.05060  0.04860 -0.00570  0.02060 -0.00890
   H15	 0.00000  0.00000  0.00000  0.00000  0.00000  0.00000
   C16	 0.06590  0.06730  0.06330 -0.00050  0.03440 -0.00990
   H16A	 0.00000  0.00000  0.00000  0.00000  0.00000  0.00000
   H16B	 0.00000  0.00000  0.00000  0.00000  0.00000  0.00000
   H16C	 0.00000  0.00000  0.00000  0.00000  0.00000  0.00000
   C17	 0.05950  0.06670  0.08090 -0.00900  0.03770 -0.00700
   H17A	 0.00000  0.00000  0.00000  0.00000  0.00000  0.00000
   H17B	 0.00000  0.00000  0.00000  0.00000  0.00000  0.00000
   H17C	 0.00000  0.00000  0.00000  0.00000  0.00000  0.00000
   N1	 0.05120  0.05700  0.05490 -0.00880  0.02510 -0.01010
   O1	 0.07400  0.09250  0.05080 -0.01180  0.03180 -0.01430
   H1	 0.00000  0.00000  0.00000  0.00000  0.00000  0.00000
   O2	 0.06130  0.07730  0.05690 -0.01340  0.02750 -0.01690
