#======================================================================

# CRYSTAL DATA

#----------------------------------------------------------------------

data_VESTA_phase_1


_pd_phase_name                         'C18 H19 N O2'
_cell_length_a                         9.1548(18)
_cell_length_b                         15.718(3)
_cell_length_c                         12.523(4)
_cell_angle_alpha                      90
_cell_angle_beta                       120.38(2)
_cell_angle_gamma                      90
_symmetry_space_group_name_H-M         'P 21/c'
_symmetry_Int_Tables_number            14

loop_
_symmetry_equiv_pos_as_xyz
   'x, y, z'
   '-x, -y, -z'
   '-x, y+1/2, -z+1/2'
   'x, -y+1/2, z+1/2'

loop_
   _atom_site_label
   _atom_site_occupancy
   _atom_site_fract_x
   _atom_site_fract_y
   _atom_site_fract_z
   _atom_site_adp_type
   _atom_site_U_iso_or_equiv
   _atom_site_type_symbol
   C1         1.0     0.5557(4)     0.21129(12)  -0.32475(17)  Uiso  0.058333 C
   C2         1.0     0.4428(4)     0.26962(13)  -0.40860(18)  Uiso  0.066128 C
   H2         1.0     0.404100      0.262500     -0.492500     Uiso  0.079000 H
   C3         1.0     0.3865(4)     0.33797(13)  -0.37066(18)  Uiso  0.065619 C
   C4         1.0     0.4420(4)     0.34629(13)  -0.2453(2)    Uiso  0.064687 C
   H4         1.0     0.403300      0.391400     -0.218200     Uiso  0.078000 H
   C5         1.0     0.5537(4)     0.28853(12)  -0.16092(18)  Uiso  0.060413 C
   H5         1.0     0.590100      0.295900     -0.077400     Uiso  0.072000 H
   C6         1.0     0.6144(2)     0.21871(11)  -0.19737(16)  Uiso  0.052381 C
   C7         1.0     0.7364(4)     0.15772(12)  -0.10967(18)  Uiso  0.059191 C
   C8         1.0     0.7995(4)     0.16475(13)   0.02245(17)  Uiso  0.061223 C
   H8         1.0     0.760000      0.208700      0.050800     Uiso  0.073000 H
   C9         1.0     0.9124(4)     0.11014(12)   0.10430(18)  Uiso  0.059638 C
   H9         1.0     0.947100      0.066800      0.071600     Uiso  0.072000 H
   C10        1.0     0.9876(4)     0.10993(11)   0.23752(17)  Uiso  0.055080 C
   C11        1.0     0.9552(4)     0.17188(13)   0.30211(17)  Uiso  0.063995 C
   H11        1.0     0.885200      0.217300      0.258500     Uiso  0.077000 H
   C12        1.0     1.0228(4)     0.16828(13)   0.42775(17)  Uiso  0.066678 C
   H12        1.0     0.997600      0.211100      0.467100     Uiso  0.080000 H
   C13        1.0     1.1294(4)     0.10129(12)   0.49828(17)  Uiso  0.058520 C
   C14        1.0     1.1661(4)     0.03988(13)   0.4343(2)    Uiso  0.067003 C
   H14        1.0     1.238500     -0.004800      0.477800     Uiso  0.080000 H
   C15        1.0     1.0970(4)     0.04459(12)   0.3087(2)    Uiso  0.066643 C
   H15        1.0     1.124000      0.002600      0.269200     Uiso  0.080000 H
   C16        1.0     1.1421(4)     0.15686(16)   0.6853(2)    Uiso  0.089121 C
   H16A       1.0     1.168700      0.213700      0.672700     Uiso  0.133000 H
   H16B       1.0     1.200600      0.144500      0.772300     Uiso  0.133000 H
   H16C       1.0     1.022300      0.151900      0.652200     Uiso  0.133000 H
   C17        1.0     1.3055(4)     0.02909(16)   0.6963(2)    Uiso  0.088251 C
   H17A       1.0     1.245000     -0.023800      0.671400     Uiso  0.132000 H
   H17B       1.0     1.344900      0.039100      0.782200     Uiso  0.132000 H
   H17C       1.0     1.400500      0.026600      0.683700     Uiso  0.132000 H
   C18        1.0     0.2679(4)     0.40269(17)  -0.4623(2)    Uiso  0.095625 C
   H18A       1.0     0.247200      0.447200     -0.419000     Uiso  0.143000 H
   H18B       1.0     0.162800      0.375700     -0.519300     Uiso  0.143000 H
   H18C       1.0     0.318000      0.426500     -0.506900     Uiso  0.143000 H
   N1         1.0     1.1944(2)     0.09743(11)   0.62323(16)  Uiso  0.072135 N
   O1         1.0     0.6089(2)     0.14776(10)  -0.36972(13)  Uiso  0.082750 O
   H1         1.0     0.674400      0.116900     -0.312700     Uiso  0.124000 H
   O2         1.0     0.7899(2)     0.09924(9)   -0.14906(12)  Uiso  0.079578 O

loop_
   _atom_site_aniso_label
   _atom_site_aniso_U_11
   _atom_site_aniso_U_22
   _atom_site_aniso_U_33
   _atom_site_aniso_U_12
   _atom_site_aniso_U_13
   _atom_site_aniso_U_23
   C1	 0.06470  0.06470  0.05370  0.00080  0.03590 -0.00460
   C2	 0.07110  0.08240  0.04890  0.00480  0.03330  0.00010
   H2	 0.00000  0.00000  0.00000  0.00000  0.00000  0.00000
   C3	 0.06360  0.07390  0.06250  0.00510  0.03420  0.00400
   C4	 0.07330  0.06300  0.06480  0.00600  0.04010 -0.00300
   H4	 0.00000  0.00000  0.00000  0.00000  0.00000  0.00000
   C5	 0.06990  0.06360  0.05720 -0.00580  0.03910 -0.00640
   H5	 0.00000  0.00000  0.00000  0.00000  0.00000  0.00000
   C6	 0.05830  0.05740  0.04840 -0.00460  0.03210 -0.00260
   C7	 0.07110  0.05940  0.05660 -0.00450  0.03930 -0.00700
   C8	 0.07240  0.06330  0.05390  0.00150  0.03630 -0.00320
   H8	 0.00000  0.00000  0.00000  0.00000  0.00000  0.00000
   C9	 0.06990  0.05900  0.05960 -0.00250  0.03980 -0.00430
   H9	 0.00000  0.00000  0.00000  0.00000  0.00000  0.00000
   C10	 0.05950  0.05580  0.05290  0.00250  0.03060 -0.00070
   C11	 0.07240  0.06330  0.05230  0.01890  0.02860  0.00620
   H11	 0.00000  0.00000  0.00000  0.00000  0.00000  0.00000
   C12	 0.07810  0.06440  0.05430  0.01970  0.03110  0.00190
   H12	 0.00000  0.00000  0.00000  0.00000  0.00000  0.00000
   C13	 0.06070  0.05880  0.05300  0.00020  0.02650  0.00280
   C14	 0.07070  0.06150  0.06600  0.01590  0.03250  0.01150
   H14	 0.00000  0.00000  0.00000  0.00000  0.00000  0.00000
   C15	 0.07660  0.05990  0.07050  0.01200  0.04240 -0.00090
   H15	 0.00000  0.00000  0.00000  0.00000  0.00000  0.00000
   C16	 0.11600  0.09400  0.05510  0.00330  0.04160 -0.00050
   H16A	 0.00000  0.00000  0.00000  0.00000  0.00000  0.00000
   H16B	 0.00000  0.00000  0.00000  0.00000  0.00000  0.00000
   H16C	 0.00000  0.00000  0.00000  0.00000  0.00000  0.00000
   C17	 0.08580  0.09100  0.06890  0.00850  0.02510  0.02190
   H17A	 0.00000  0.00000  0.00000  0.00000  0.00000  0.00000
   H17B	 0.00000  0.00000  0.00000  0.00000  0.00000  0.00000
   H17C	 0.00000  0.00000  0.00000  0.00000  0.00000  0.00000
   C18	 0.10400  0.10430  0.07780  0.03310  0.04540  0.01920
   H18A	 0.00000  0.00000  0.00000  0.00000  0.00000  0.00000
   H18B	 0.00000  0.00000  0.00000  0.00000  0.00000  0.00000
   H18C	 0.00000  0.00000  0.00000  0.00000  0.00000  0.00000
   N1	 0.08150  0.07210  0.05260  0.01110  0.02640  0.01050
   O1	 0.10970  0.08790  0.05920  0.02620  0.04900 -0.00190
   H1	 0.00000  0.00000  0.00000  0.00000  0.00000  0.00000
   O2	 0.10690  0.07740  0.05990  0.02400  0.04620 -0.00040
