#======================================================================

# CRYSTAL DATA

#----------------------------------------------------------------------

data_VESTA_phase_1


_pd_phase_name                         'C18 H19 N O3'
_cell_length_a                         9.4457(19)
_cell_length_b                         14.574(3)
_cell_length_c                         23.993(5)
_cell_angle_alpha                      82.82(3)
_cell_angle_beta                       82.35(3)
_cell_angle_gamma                      73.83(3)
_symmetry_space_group_name_H-M         'P -1'
_symmetry_Int_Tables_number            2

loop_
_symmetry_equiv_pos_as_xyz
   'x, y, z'
   '-x, -y, -z'

loop_
   _atom_site_label
   _atom_site_occupancy
   _atom_site_fract_x
   _atom_site_fract_y
   _atom_site_fract_z
   _atom_site_adp_type
   _atom_site_U_iso_or_equiv
   _atom_site_type_symbol
   C1         1.0    -0.1475(5)     0.1640(4)     0.78389(16)  Uiso  0.080128 C
   H1         1.0    -0.213100      0.176600      0.816300     Uiso  0.096000 H
   C2         1.0     0.0037(5)     0.1332(4)     0.78822(16)  Uiso  0.076085 C
   H2         1.0     0.038900      0.124800      0.823400     Uiso  0.091000 H
   C3         1.0     0.1022(4)     0.1149(4)     0.74027(14)  Uiso  0.062777 C
   C4         1.0     0.0478(4)     0.1247(4)     0.68902(14)  Uiso  0.059985 C
   H4         1.0     0.114200      0.110600      0.657000     Uiso  0.072000 H
   C5         1.0    -0.1047(4)     0.1553(4)     0.68301(14)  Uiso  0.058789 C
   C6         1.0    -0.2018(4)     0.1762(4)     0.73182(16)  Uiso  0.065264 C
   C7         1.0     0.3119(5)     0.0899(4)     0.79135(16)  Uiso  0.101084 C
   H7A        1.0     0.268300      0.151200      0.805700     Uiso  0.152000 H
   H7B        1.0     0.417300      0.079800      0.784200     Uiso  0.152000 H
   H7C        1.0     0.290300      0.040300      0.818600     Uiso  0.152000 H
   C8         1.0    -0.1621(4)     0.1685(4)     0.62705(14)  Uiso  0.063067 C
   C9         1.0    -0.0630(4)     0.1427(4)     0.57670(14)  Uiso  0.062113 C
   H9         1.0     0.036600      0.112400      0.579700     Uiso  0.075000 H
   C10        1.0    -0.1127(4)     0.1619(4)     0.52626(14)  Uiso  0.059357 C
   H10        1.0    -0.212600      0.194200      0.526000     Uiso  0.071000 H
   C11        1.0    -0.0342(4)     0.1397(2)     0.47152(14)  Uiso  0.054041 C
   C12        1.0     0.1163(4)     0.0952(4)     0.46232(16)  Uiso  0.069078 C
   H12        1.0     0.171800      0.078700      0.493100     Uiso  0.083000 H
   C13        1.0     0.1860(4)     0.0746(4)     0.40997(16)  Uiso  0.069551 C
   H13        1.0     0.287300      0.045200      0.405900     Uiso  0.083000 H
   C14        1.0     0.1069(4)     0.0972(4)     0.36216(14)  Uiso  0.056578 C
   C15        1.0    -0.0425(4)     0.1430(4)     0.37074(14)  Uiso  0.060272 C
   H15        1.0    -0.098800      0.159600      0.340200     Uiso  0.072000 H
   C16        1.0    -0.1083(4)     0.1642(4)     0.42329(14)  Uiso  0.060110 C
   H16        1.0    -0.208300      0.196800      0.427100     Uiso  0.073000 H
   C17        1.0     0.3308(4)     0.0316(4)     0.29976(18)  Uiso  0.089352 C
   H17A       1.0     0.382600      0.077900      0.304200     Uiso  0.134000 H
   H17B       1.0     0.354800      0.012200      0.262100     Uiso  0.134000 H
   H17C       1.0     0.359800     -0.023400      0.326400     Uiso  0.134000 H
   C18        1.0     0.0895(5)     0.0957(4)     0.26097(16)  Uiso  0.081731 C
   H18A       1.0     0.008200      0.066900      0.268300     Uiso  0.122000 H
   H18B       1.0     0.152700      0.070700      0.228500     Uiso  0.122000 H
   H18C       1.0     0.052100      0.163900      0.254000     Uiso  0.122000 H
   C19        1.0    -0.2356(4)     0.6712(4)     0.30636(16)  Uiso  0.068010 C
   H19A       1.0    -0.231400      0.617500      0.334300     Uiso  0.102000 H
   H19B       1.0    -0.331100      0.690600      0.292400     Uiso  0.102000 H
   H19C       1.0    -0.219800      0.723600      0.323100     Uiso  0.102000 H
   C20        1.0     0.0209(4)     0.6155(4)     0.27374(13)  Uiso  0.056435 C
   C21        1.0     0.0680(4)     0.6052(2)     0.32572(12)  Uiso  0.051663 C
   H21        1.0    -0.001800      0.618500      0.356900     Uiso  0.062000 H
   C22        1.0     0.2188(4)     0.5751(2)     0.33375(12)  Uiso  0.046068 C
   C23        1.0     0.3221(4)     0.5543(4)     0.28594(13)  Uiso  0.055058 C
   C24        1.0     0.2723(4)     0.5653(4)     0.23287(14)  Uiso  0.071802 C
   H24        1.0     0.340200      0.551700      0.201200     Uiso  0.086000 H
   C25        1.0     0.1243(4)     0.5959(4)     0.22708(14)  Uiso  0.070159 C
   H25        1.0     0.092300      0.603700      0.191300     Uiso  0.084000 H
   C26        1.0     0.2739(4)     0.5630(2)     0.38953(13)  Uiso  0.049502 C
   C27        1.0     0.1732(4)     0.5820(2)     0.44051(12)  Uiso  0.050337 C
   H27        1.0     0.071500      0.602200      0.438200     Uiso  0.061000 H
   C28        1.0     0.2254(4)     0.5707(2)     0.49120(12)  Uiso  0.050114 C
   H28        1.0     0.327900      0.548700      0.490700     Uiso  0.060000 H
   C29        1.0     0.1456(4)     0.5879(2)     0.54635(12)  Uiso  0.044358 C
   C30        1.0     0.2259(4)     0.5704(2)     0.59311(12)  Uiso  0.049490 C
   H30        1.0     0.328300      0.545900      0.587800     Uiso  0.059000 H
   C31        1.0     0.1599(4)     0.5879(2)     0.64636(12)  Uiso  0.049977 C
   H31        1.0     0.217500      0.574800      0.676400     Uiso  0.060000 H
   C32        1.0     0.0057(4)     0.6256(2)     0.65613(12)  Uiso  0.046910 C
   C33        1.0    -0.0759(4)     0.6422(2)     0.60912(13)  Uiso  0.051571 C
   H33        1.0    -0.178300      0.666400      0.614100     Uiso  0.062000 H
   C34        1.0    -0.0075(4)     0.6234(2)     0.55631(12)  Uiso  0.050083 C
   H34        1.0    -0.064800      0.634700      0.526200     Uiso  0.060000 H
   C35        1.0    -0.2207(4)     0.6829(4)     0.71874(14)  Uiso  0.065440 C
   H35A       1.0    -0.252900      0.740800      0.694600     Uiso  0.098000 H
   H35B       1.0    -0.247500      0.696300      0.757500     Uiso  0.098000 H
   H35C       1.0    -0.267400      0.636000      0.710800     Uiso  0.098000 H
   C36        1.0     0.0222(4)     0.6228(4)     0.75754(13)  Uiso  0.067598 C
   H36A       1.0     0.064100      0.554700      0.762600     Uiso  0.101000 H
   H36B       1.0    -0.042100      0.643800      0.790600     Uiso  0.101000 H
   H36C       1.0     0.100300      0.654500      0.751500     Uiso  0.101000 H
   C37        1.0     0.3331(5)     0.3956(4)     0.82933(13)  Uiso  0.079328 C
   H37A       1.0     0.240400      0.437300      0.819100     Uiso  0.119000 H
   H37B       1.0     0.327400      0.330300      0.833600     Uiso  0.119000 H
   H37C       1.0     0.410700      0.402700      0.800300     Uiso  0.119000 H
   C38        1.0     0.3542(4)     0.5135(4)     0.88627(12)  Uiso  0.049764 C
   C39        1.0     0.3468(4)     0.5359(4)     0.94175(13)  Uiso  0.057963 C
   H39        1.0     0.354100      0.487200      0.971100     Uiso  0.069000 H
   C40        1.0     0.3293(4)     0.6273(4)     0.95373(13)  Uiso  0.054660 C
   H40        1.0     0.325100      0.640700      0.990900     Uiso  0.065000 H
   C41        1.0     0.3179(4)     0.7002(4)     0.91065(13)  Uiso  0.049529 C
   C42        1.0     0.3332(4)     0.6803(2)     0.85372(11)  Uiso  0.043453 C
   C43        1.0     0.3512(4)     0.5845(4)     0.84274(12)  Uiso  0.047647 C
   H43        1.0     0.361000      0.569300      0.805600     Uiso  0.057000 H
   C44        1.0     0.3347(4)     0.7576(4)     0.80794(13)  Uiso  0.051684 C
   C45        1.0     0.3790(4)     0.7370(4)     0.74968(12)  Uiso  0.048844 C
   H45        1.0     0.405000      0.673800      0.740800     Uiso  0.059000 H
   C46        1.0     0.3833(4)     0.8076(4)     0.70829(12)  Uiso  0.047751 C
   H46        1.0     0.350600      0.870000      0.718800     Uiso  0.057000 H
   C47        1.0     0.4333(4)     0.7973(2)     0.64900(12)  Uiso  0.045956 C
   C48        1.0     0.4302(4)     0.8776(4)     0.61116(13)  Uiso  0.053596 C
   H48        1.0     0.396300      0.937900      0.624600     Uiso  0.064000 H
   C49        1.0     0.4755(4)     0.8716(4)     0.55429(13)  Uiso  0.055806 C
   H49        1.0     0.473100      0.927400      0.530500     Uiso  0.067000 H
   C50        1.0     0.5249(4)     0.7826(2)     0.53211(12)  Uiso  0.047076 C
   C51        1.0     0.5278(4)     0.7009(2)     0.57045(12)  Uiso  0.048759 C
   H51        1.0     0.560200      0.640300      0.557300     Uiso  0.059000 H
   C52        1.0     0.4838(4)     0.7089(2)     0.62649(12)  Uiso  0.048952 C
   H52        1.0     0.487700      0.653300      0.650600     Uiso  0.059000 H
   C53        1.0     0.5990(5)     0.6838(4)     0.45230(16)  Uiso  0.086392 C
   H53A       1.0     0.695000      0.645700      0.461600     Uiso  0.130000 H
   H53B       1.0     0.598900      0.694300      0.412000     Uiso  0.130000 H
   H53C       1.0     0.525700      0.650900      0.467800     Uiso  0.130000 H
   C54        1.0     0.5646(5)     0.8585(4)     0.43636(14)  Uiso  0.079716 C
   H54A       1.0     0.466300      0.900800      0.437600     Uiso  0.120000 H
   H54B       1.0     0.595600      0.839100      0.398900     Uiso  0.120000 H
   H54C       1.0     0.631400      0.891200      0.446500     Uiso  0.120000 H
   C55        1.0    -0.4959(4)     0.7765(4)     0.03307(16)  Uiso  0.069100 C
   H55A       1.0    -0.430000      0.734900      0.007200     Uiso  0.104000 H
   H55B       1.0    -0.595900      0.788300      0.024200     Uiso  0.104000 H
   H55C       1.0    -0.487900      0.746500      0.070900     Uiso  0.104000 H
   C56        1.0    -0.3169(4)     0.8620(2)     0.03950(12)  Uiso  0.047860 C
   C57        1.0    -0.2886(4)     0.9515(2)     0.03564(13)  Uiso  0.050925 C
   H57        1.0    -0.362300      1.006700      0.026400     Uiso  0.061000 H
   C58        1.0    -0.1534(4)     0.9587(2)     0.04537(13)  Uiso  0.051104 C
   H58        1.0    -0.136300      1.018800      0.043600     Uiso  0.061000 H
   C59        1.0    -0.0403(4)     0.8765(2)     0.05798(12)  Uiso  0.042535 C
   C60        1.0    -0.0665(4)     0.7859(2)     0.06112(11)  Uiso  0.038033 C
   C61        1.0    -0.2083(4)     0.7800(2)     0.05180(11)  Uiso  0.040940 C
   H61        1.0    -0.227900      0.720500      0.054000     Uiso  0.049000 H
   C62        1.0     0.0553(4)     0.7003(2)     0.07327(11)  Uiso  0.041410 C
   C63        1.0     0.0397(4)     0.6036(2)     0.07415(11)  Uiso  0.041848 C
   H63        1.0    -0.048900      0.594100      0.066400     Uiso  0.050000 H
   C64        1.0     0.1542(4)     0.5282(2)     0.08620(11)  Uiso  0.038956 C
   H64        1.0     0.239800      0.543600      0.092200     Uiso  0.047000 H
   C65        1.0     0.1646(4)     0.4279(2)     0.09121(11)  Uiso  0.037867 C
   C66        1.0     0.2926(4)     0.3626(2)     0.10860(13)  Uiso  0.047243 C
   H66        1.0     0.369800      0.386000      0.115800     Uiso  0.057000 H
   C67        1.0     0.3103(4)     0.2656(2)     0.11564(13)  Uiso  0.047957 C
   H67        1.0     0.398100      0.225000      0.127300     Uiso  0.057000 H
   C68        1.0     0.1966(4)     0.2270(2)     0.10534(12)  Uiso  0.043452 C
   C69        1.0     0.0671(4)     0.2923(2)     0.08709(12)  Uiso  0.046089 C
   H69        1.0    -0.010300      0.269200      0.079800     Uiso  0.055000 H
   C70        1.0     0.0525(4)     0.3890(2)     0.07990(12)  Uiso  0.043959 C
   H70        1.0    -0.033900      0.429900      0.067200     Uiso  0.053000 H
   C71        1.0     0.0864(4)     0.0942(4)     0.10600(16)  Uiso  0.070481 C
   H71A       1.0     0.001900      0.124200      0.130600     Uiso  0.106000 H
   H71B       1.0     0.112000      0.026000      0.115600     Uiso  0.106000 H
   H71C       1.0     0.063100      0.107900      0.067600     Uiso  0.106000 H
   C72        1.0     0.3526(4)     0.0632(4)     0.12124(17)  Uiso  0.078080 C
   H72A       1.0     0.425600      0.074700      0.091300     Uiso  0.117000 H
   H72B       1.0     0.344300     -0.001000      0.121500     Uiso  0.117000 H
   H72C       1.0     0.381900      0.071200      0.156800     Uiso  0.117000 H
   H1O        1.0     0.477(5)      0.527(3)      0.3246(9)    Uiso  0.098000 H
   H2O        1.0     0.279(5)      0.829(3)      0.8938(13)   Uiso  0.126000 H
   H3O        1.0     0.151(5)      0.831(2)      0.070(2)     Uiso  0.150000 H
   N1         1.0     0.1737(4)     0.0737(4)     0.30966(13)  Uiso  0.074077 N
   N2         1.0    -0.0623(4)     0.6465(2)     0.70877(10)  Uiso  0.056291 N
   N3         1.0     0.5653(4)     0.7749(2)     0.47568(11)  Uiso  0.065480 N
   N4         1.0     0.2104(4)     0.1310(2)     0.11233(12)  Uiso  0.057222 N
   O1         1.0     0.2523(4)     0.0875(2)     0.74015(10)  Uiso  0.083177 O
   O2         1.0    -0.3510(4)     0.2086(4)     0.73050(14)  Uiso  0.090935 O
   O3         1.0    -0.2975(4)     0.2031(2)     0.62491(11)  Uiso  0.082918 O
   O4         1.0    -0.1240(4)     0.6447(2)     0.26111(9)   Uiso  0.076689 O
   O5         1.0     0.4108(4)     0.53628(18)   0.39288(9)   Uiso  0.063786 O
   O6         1.0     0.4709(4)     0.5227(2)     0.28916(10)  Uiso  0.068623 O
   O7         1.0     0.3638(4)     0.4196(2)     0.88067(9)   Uiso  0.072270 O
   O8         1.0     0.2932(4)     0.7914(2)     0.92476(10)  Uiso  0.064104 O
   O9         1.0     0.3004(4)     0.8424(2)     0.82062(10)  Uiso  0.073378 O
   O10        1.0    -0.4573(2)     0.86457(17)   0.02857(10)  Uiso  0.065995 O
   O11        1.0     0.0916(4)     0.8883(2)     0.06651(10)  Uiso  0.058481 O
   O12        1.0     0.1775(2)     0.71099(16)   0.08256(9)   Uiso  0.053705 O
   H4O        1.0    -0.368(6)      0.222(4)      0.6955(10)   Uiso  0.140000 H

loop_
   _atom_site_aniso_label
   _atom_site_aniso_U_11
   _atom_site_aniso_U_22
   _atom_site_aniso_U_33
   _atom_site_aniso_U_12
   _atom_site_aniso_U_13
   _atom_site_aniso_U_23
   C1	 0.08500  0.10100  0.05800 -0.03200  0.01200 -0.02500
   H1	 0.00000  0.00000  0.00000  0.00000  0.00000  0.00000
   C2	 0.08900  0.08500  0.05800 -0.02900 -0.00600 -0.00900
   H2	 0.00000  0.00000  0.00000  0.00000  0.00000  0.00000
   C3	 0.06700  0.06400  0.05400 -0.01300 -0.00840 -0.00080
   C4	 0.06600  0.05900  0.05220 -0.01370 -0.00010 -0.00790
   H4	 0.00000  0.00000  0.00000  0.00000  0.00000  0.00000
   C5	 0.06600  0.05500  0.05700 -0.01910 -0.00340 -0.00760
   C6	 0.06200  0.07600  0.06300 -0.02800  0.00300 -0.01400
   C7	 0.09600  0.13500  0.06800 -0.01000 -0.03200 -0.01600
   H7A	 0.00000  0.00000  0.00000  0.00000  0.00000  0.00000
   H7B	 0.00000  0.00000  0.00000  0.00000  0.00000  0.00000
   H7C	 0.00000  0.00000  0.00000  0.00000  0.00000  0.00000
   C8	 0.06300  0.06500  0.06300 -0.02100 -0.00800 -0.00200
   C9	 0.06000  0.06800  0.05700 -0.01330 -0.00710 -0.00820
   H9	 0.00000  0.00000  0.00000  0.00000  0.00000  0.00000
   C10	 0.06100  0.05800  0.06100 -0.01910 -0.00900 -0.00240
   H10	 0.00000  0.00000  0.00000  0.00000  0.00000  0.00000
   C11	 0.05700  0.05100  0.05820 -0.01920 -0.01480  0.00010
   C12	 0.06500  0.08000  0.06000 -0.00800 -0.02150 -0.00800
   H12	 0.00000  0.00000  0.00000  0.00000  0.00000  0.00000
   C13	 0.04900  0.07700  0.07700  0.00060 -0.01660 -0.01500
   H13	 0.00000  0.00000  0.00000  0.00000  0.00000  0.00000
   C14	 0.05800  0.05400  0.06200 -0.02090 -0.01020 -0.00340
   C15	 0.06000  0.06900  0.05700 -0.02400 -0.01690  0.00190
   H15	 0.00000  0.00000  0.00000  0.00000  0.00000  0.00000
   C16	 0.04700  0.07500  0.05900 -0.01750 -0.01140  0.00050
   H16	 0.00000  0.00000  0.00000  0.00000  0.00000  0.00000
   C17	 0.06600  0.10500  0.09000 -0.01000  0.01000 -0.03100
   H17A	 0.00000  0.00000  0.00000  0.00000  0.00000  0.00000
   H17B	 0.00000  0.00000  0.00000  0.00000  0.00000  0.00000
   H17C	 0.00000  0.00000  0.00000  0.00000  0.00000  0.00000
   C18	 0.09400  0.09500  0.05900 -0.02800 -0.00900 -0.01000
   H18A	 0.00000  0.00000  0.00000  0.00000  0.00000  0.00000
   H18B	 0.00000  0.00000  0.00000  0.00000  0.00000  0.00000
   H18C	 0.00000  0.00000  0.00000  0.00000  0.00000  0.00000
   C19	 0.06100  0.07800  0.06500 -0.01500 -0.00890 -0.01200
   H19A	 0.00000  0.00000  0.00000  0.00000  0.00000  0.00000
   H19B	 0.00000  0.00000  0.00000  0.00000  0.00000  0.00000
   H19C	 0.00000  0.00000  0.00000  0.00000  0.00000  0.00000
   C20	 0.05900  0.06800  0.04450 -0.01750 -0.00780 -0.00950
   C21	 0.06600  0.05200  0.03940 -0.01740 -0.00810 -0.00660
   H21	 0.00000  0.00000  0.00000  0.00000  0.00000  0.00000
   C22	 0.05470  0.04100  0.04090 -0.01120 -0.00650  0.00040
   C23	 0.06000  0.05200  0.04840 -0.00980 -0.00220 -0.00200
   C24	 0.07400  0.08800  0.04380 -0.00800  0.00110 -0.00870
   H24	 0.00000  0.00000  0.00000  0.00000  0.00000  0.00000
   C25	 0.07500  0.09000  0.04050 -0.01100 -0.00360 -0.01500
   H25	 0.00000  0.00000  0.00000  0.00000  0.00000  0.00000
   C26	 0.05300  0.04100  0.05200 -0.00950 -0.00680 -0.00030
   C27	 0.05290  0.04900  0.04880 -0.01230 -0.00690 -0.00450
   H27	 0.00000  0.00000  0.00000  0.00000  0.00000  0.00000
   C28	 0.05220  0.04700  0.05150 -0.01420 -0.00790 -0.00090
   H28	 0.00000  0.00000  0.00000  0.00000  0.00000  0.00000
   C29	 0.04320  0.04400  0.04680 -0.01300 -0.00820 -0.00070
   C30	 0.04300  0.05700  0.04770 -0.01050 -0.00740 -0.00550
   H30	 0.00000  0.00000  0.00000  0.00000  0.00000  0.00000
   C31	 0.04500  0.06000  0.04590 -0.01080 -0.01460 -0.00530
   H31	 0.00000  0.00000  0.00000  0.00000  0.00000  0.00000
   C32	 0.05070  0.05000  0.04300 -0.01700 -0.00900 -0.00280
   C33	 0.04280  0.06000  0.05370 -0.01680 -0.01120  0.00180
   H33	 0.00000  0.00000  0.00000  0.00000  0.00000  0.00000
   C34	 0.05100  0.06000  0.04330 -0.01930 -0.01730  0.00360
   H34	 0.00000  0.00000  0.00000  0.00000  0.00000  0.00000
   C35	 0.05500  0.08000  0.06000 -0.01700 -0.00230 -0.00760
   H35A	 0.00000  0.00000  0.00000  0.00000  0.00000  0.00000
   H35B	 0.00000  0.00000  0.00000  0.00000  0.00000  0.00000
   H35C	 0.00000  0.00000  0.00000  0.00000  0.00000  0.00000
   C36	 0.06300  0.08900  0.04650 -0.00800 -0.01270 -0.01070
   H36A	 0.00000  0.00000  0.00000  0.00000  0.00000  0.00000
   H36B	 0.00000  0.00000  0.00000  0.00000  0.00000  0.00000
   H36C	 0.00000  0.00000  0.00000  0.00000  0.00000  0.00000
   C37	 0.12600  0.07900  0.04700 -0.05100 -0.01500  0.00230
   H37A	 0.00000  0.00000  0.00000  0.00000  0.00000  0.00000
   H37B	 0.00000  0.00000  0.00000  0.00000  0.00000  0.00000
   H37C	 0.00000  0.00000  0.00000  0.00000  0.00000  0.00000
   C38	 0.04640  0.05900  0.04480 -0.01730 -0.00780  0.00260
   C39	 0.05900  0.07600  0.04180 -0.02600 -0.01060  0.00780
   H39	 0.00000  0.00000  0.00000  0.00000  0.00000  0.00000
   C40	 0.04650  0.08100  0.03600 -0.01750 -0.00330 -0.00340
   H40	 0.00000  0.00000  0.00000  0.00000  0.00000  0.00000
   C41	 0.03490  0.06400  0.04860 -0.01020 -0.00490 -0.00730
   C42	 0.02950  0.05800  0.03920 -0.00650 -0.00470 -0.00130
   C43	 0.04190  0.06400  0.03660 -0.01480 -0.00430 -0.00110
   H43	 0.00000  0.00000  0.00000  0.00000  0.00000  0.00000
   C44	 0.04460  0.05800  0.05120 -0.00950 -0.00840 -0.00620
   C45	 0.05040  0.05100  0.04450 -0.01370 -0.00730  0.00100
   H45	 0.00000  0.00000  0.00000  0.00000  0.00000  0.00000
   C46	 0.04050  0.05700  0.04640 -0.01400 -0.00530 -0.00400
   H46	 0.00000  0.00000  0.00000  0.00000  0.00000  0.00000
   C47	 0.04360  0.05000  0.04560 -0.01730 -0.00770  0.00500
   C48	 0.06300  0.04600  0.05270 -0.02060 -0.00230  0.00210
   H48	 0.00000  0.00000  0.00000  0.00000  0.00000  0.00000
   C49	 0.06900  0.04600  0.05160 -0.02220  0.00150  0.00620
   H49	 0.00000  0.00000  0.00000  0.00000  0.00000  0.00000
   C50	 0.04630  0.04900  0.04620 -0.01560 -0.00470  0.00120
   C51	 0.05600  0.03900  0.05090 -0.01310 -0.00860  0.00160
   H51	 0.00000  0.00000  0.00000  0.00000  0.00000  0.00000
   C52	 0.05060  0.04900  0.04660 -0.01520 -0.01090  0.00880
   H52	 0.00000  0.00000  0.00000  0.00000  0.00000  0.00000
   C53	 0.13200  0.06700  0.05300 -0.02100  0.01100 -0.01300
   H53A	 0.00000  0.00000  0.00000  0.00000  0.00000  0.00000
   H53B	 0.00000  0.00000  0.00000  0.00000  0.00000  0.00000
   H53C	 0.00000  0.00000  0.00000  0.00000  0.00000  0.00000
   C54	 0.11800  0.07100  0.05000 -0.03400  0.00100  0.00500
   H54A	 0.00000  0.00000  0.00000  0.00000  0.00000  0.00000
   H54B	 0.00000  0.00000  0.00000  0.00000  0.00000  0.00000
   H54C	 0.00000  0.00000  0.00000  0.00000  0.00000  0.00000
   C55	 0.05400  0.06500  0.09100 -0.02100 -0.02580  0.01400
   H55A	 0.00000  0.00000  0.00000  0.00000  0.00000  0.00000
   H55B	 0.00000  0.00000  0.00000  0.00000  0.00000  0.00000
   H55C	 0.00000  0.00000  0.00000  0.00000  0.00000  0.00000
   C56	 0.04340  0.04500  0.05200 -0.00750 -0.00530 -0.00190
   C57	 0.05600  0.03300  0.05360 -0.00150  0.00100  0.00350
   H57	 0.00000  0.00000  0.00000  0.00000  0.00000  0.00000
   C58	 0.05900  0.03600  0.05680 -0.01360  0.00210 -0.00500
   H58	 0.00000  0.00000  0.00000  0.00000  0.00000  0.00000
   C59	 0.04770  0.03800  0.04220 -0.01410  0.00190 -0.00560
   C60	 0.04420  0.03580  0.03270 -0.00910 -0.00280 -0.00270
   C61	 0.04810  0.02880  0.04370 -0.00810 -0.00670  0.00220
   H61	 0.00000  0.00000  0.00000  0.00000  0.00000  0.00000
   C62	 0.04580  0.04500  0.03360 -0.01410 -0.00020 -0.00380
   C63	 0.03960  0.04400  0.04330 -0.01270 -0.00460 -0.00520
   H63	 0.00000  0.00000  0.00000  0.00000  0.00000  0.00000
   C64	 0.03400  0.04100  0.03960 -0.00840 -0.00090 -0.00190
   H64	 0.00000  0.00000  0.00000  0.00000  0.00000  0.00000
   C65	 0.03250  0.03880  0.04100 -0.00840 -0.00200 -0.00320
   C66	 0.03630  0.04000  0.06400 -0.00830 -0.00610 -0.00270
   H66	 0.00000  0.00000  0.00000  0.00000  0.00000  0.00000
   C67	 0.03380  0.04300  0.06270 -0.00380 -0.00720 -0.00080
   H67	 0.00000  0.00000  0.00000  0.00000  0.00000  0.00000
   C68	 0.04800  0.03600  0.04400 -0.00820 -0.00040 -0.00630
   C69	 0.03960  0.04700  0.05290 -0.01120 -0.00780 -0.00680
   H69	 0.00000  0.00000  0.00000  0.00000  0.00000  0.00000
   C70	 0.03610  0.04400  0.04800 -0.00180 -0.00780 -0.00670
   H70	 0.00000  0.00000  0.00000  0.00000  0.00000  0.00000
   C71	 0.09100  0.05100  0.07800 -0.03100 -0.01100 -0.00800
   H71A	 0.00000  0.00000  0.00000  0.00000  0.00000  0.00000
   H71B	 0.00000  0.00000  0.00000  0.00000  0.00000  0.00000
   H71C	 0.00000  0.00000  0.00000  0.00000  0.00000  0.00000
   C72	 0.08100  0.04400  0.09300  0.00300  0.00300 -0.00300
   H72A	 0.00000  0.00000  0.00000  0.00000  0.00000  0.00000
   H72B	 0.00000  0.00000  0.00000  0.00000  0.00000  0.00000
   H72C	 0.00000  0.00000  0.00000  0.00000  0.00000  0.00000
   H1O	 0.00000  0.00000  0.00000  0.00000  0.00000  0.00000
   H2O	 0.00000  0.00000  0.00000  0.00000  0.00000  0.00000
   H3O	 0.00000  0.00000  0.00000  0.00000  0.00000  0.00000
   N1	 0.06300  0.09200  0.06740 -0.01700 -0.00820 -0.01480
   N2	 0.04920  0.07100  0.04670 -0.01150 -0.00950 -0.00350
   N3	 0.09900  0.04900  0.04610 -0.02240  0.00090  0.00170
   N4	 0.06090  0.03750  0.07140 -0.01050 -0.00230 -0.00880
   O1	 0.07810  0.10300  0.06230 -0.00950 -0.01880 -0.00580
   O2	 0.06760  0.12000  0.08700 -0.02610  0.00820 -0.03100
   O3	 0.06070  0.10900  0.07560 -0.01660 -0.01030 -0.00580
   O4	 0.06060  0.11800  0.05060 -0.01530 -0.00980 -0.01970
   O5	 0.05560  0.07040  0.05660 -0.00170 -0.00860 -0.00450
   O6	 0.05520  0.08200  0.05440  0.00030  0.00310 -0.00450
   O7	 0.11000  0.06230  0.05320 -0.03430 -0.02980  0.01080
   O8	 0.06610  0.06640  0.05400 -0.00540 -0.00300 -0.01520
   O9	 0.09800  0.05730  0.05650 -0.00920 -0.00010 -0.00860
   O10	 0.04800  0.04990  0.09630 -0.00750 -0.02320  0.01160
   O11	 0.05440  0.05390  0.07390 -0.02370 -0.00610 -0.01060
   O12	 0.04380  0.05040  0.07000 -0.01520 -0.01290 -0.00360
   H4O	 0.00000  0.00000  0.00000  0.00000  0.00000  0.00000
